xflr5 v6.32

 Calculated polar for: MH 45  10% normal reflex

 1 1 Reynolds number fixed          Mach number fixed         

 xtrf =   1.000 (top)        1.000 (bottom)
 Mach =   0.000     Re =     0.100 e 6     Ncrit =   9.000

  alpha     CL        CD       CDp       Cm    Top Xtr Bot Xtr   Cpmin    Chinge    XCp    
 ------- -------- --------- --------- -------- ------- ------- -------- --------- ---------
  -3.000  -0.2287   0.01514   0.00874  -0.0215  0.9069  0.5770  -1.5896   0.0001   0.1510
  -2.000  -0.1192   0.01497   0.00920  -0.0158  0.8617  0.8397  -0.9097  -0.0006   0.1110
  -1.000   0.0855   0.01558   0.00917  -0.0290  0.8170  0.9826  -0.4755  -0.0009   0.5927
   0.000   0.1855   0.01565   0.00864  -0.0284  0.7656  1.0000  -0.5704  -0.0007   0.4023
   1.000   0.2661   0.01613   0.00874  -0.0225  0.7160  1.0000  -0.6704  -0.0007   0.3327
   2.000   0.3536   0.01644   0.00878  -0.0171  0.6647  1.0000  -0.7981  -0.0006   0.2955
   3.000   0.4469   0.01663   0.00885  -0.0126  0.6101  1.0000  -0.9627  -0.0004   0.2745
   4.000   0.5430   0.01695   0.00913  -0.0085  0.5509  1.0000  -1.1751  -0.0003   0.2612
   5.000   0.6406   0.01741   0.00955  -0.0046  0.4867  1.0000  -1.4155  -0.0002   0.2519
   6.000   0.7379   0.01856   0.01053  -0.0009  0.4153  1.0000  -1.7674  -0.0001   0.2451
   7.000   0.8343   0.01979   0.01187   0.0017  0.3392  1.0000  -2.8394   0.0001   0.2407
   8.000   0.9263   0.02216   0.01415   0.0043  0.2665  1.0000  -3.9788   0.0002   0.2369
   9.000   1.0090   0.02422   0.01595   0.0070  0.1926  1.0000  -5.1420   0.0004   0.2333
  10.000   1.0749   0.02709   0.01913   0.0095  0.1256  1.0000  -6.2605   0.0006   0.2299
  11.000   1.1243   0.03185   0.02439   0.0133  0.0898  1.0000  -7.2365   0.0008   0.2254
  12.000   1.1358   0.03931   0.03237   0.0162  0.0630  1.0000  -7.8858   0.0012   0.2213
  13.000   1.1164   0.05220   0.04572   0.0138  0.0397  1.0000  -8.1549   0.0016   0.2213
  14.000   1.0687   0.07151   0.06548   0.0062  0.0307  1.0000  -8.0183   0.0019   0.2261
  15.000   1.0188   0.09426   0.08885  -0.0038  0.0274  1.0000  -7.6568   0.0021   0.2341
  16.000   0.9493   0.12583   0.12102  -0.0209  0.0280  1.0000  -6.8702   0.0024   0.2514


