xflr5 v6.32

 Calculated polar for: MH 45  10% 3 reflex

 1 1 Reynolds number fixed          Mach number fixed         

 xtrf =   1.000 (top)        1.000 (bottom)
 Mach =   0.000     Re =     0.300 e 6     Ncrit =   9.000

  alpha     CL        CD       CDp       Cm    Top Xtr Bot Xtr   Cpmin    Chinge    XCp    
 ------- -------- --------- --------- -------- ------- ------- -------- --------- ---------
  -1.000  -0.2075   0.00868   0.00354   0.0275  0.7125  0.6751  -1.1826  -0.0027   0.3803
   0.000  -0.0477   0.00850   0.00382   0.0215  0.6807  0.9710  -0.4126  -0.0021   0.7000
   1.000   0.1234   0.00839   0.00327   0.0098  0.6398  1.0000  -0.5490  -0.0013   0.1682
   2.000   0.2264   0.00828   0.00290   0.0116  0.5927  1.0000  -0.6778  -0.0013   0.1958
   3.000   0.3308   0.00836   0.00274   0.0132  0.5366  1.0000  -0.8442  -0.0012   0.2069
   4.000   0.4354   0.00875   0.00287   0.0145  0.4688  1.0000  -1.0603  -0.0010   0.2129
   5.000   0.5401   0.00925   0.00335   0.0158  0.4064  1.0000  -1.3250  -0.0008   0.2165
   6.000   0.6429   0.01021   0.00387   0.0169  0.2973  1.0000  -2.0107  -0.0006   0.2189
   7.000   0.7405   0.01259   0.00513   0.0171  0.1161  1.0000  -2.9715  -0.0003   0.2212
   8.000   0.8358   0.01477   0.00703   0.0186  0.0489  1.0000  -4.0638  -0.0001   0.2211
   9.000   0.9228   0.01790   0.01013   0.0207  0.0053  1.0000  -5.2335   0.0001   0.2199
  10.000   1.0062   0.02088   0.01369   0.0235  0.0046  1.0000  -6.4115   0.0004   0.2179
  11.000   1.0633   0.02600   0.01974   0.0269  0.0045  1.0000  -7.3484   0.0009   0.2146
  12.000   1.0675   0.03457   0.02894   0.0297  0.0046  1.0000  -7.8512   0.0021   0.2105
  13.000   1.0559   0.04701   0.04203   0.0281  0.0048  1.0000  -8.1446   0.0034   0.2101
  14.000   1.0244   0.06432   0.06002   0.0212  0.0049  1.0000  -8.1703   0.0046   0.2142
  15.000   0.9752   0.08827   0.08460   0.0080  0.0050  1.0000  -7.8794   0.0058   0.2251
  16.000   0.9148   0.11863   0.11546  -0.0094  0.0051  1.0000  -7.2229   0.0069   0.2424
  17.000   0.8426   0.15740   0.15454  -0.0301  0.0054  1.0000  -5.7960   0.0081   0.2678
  18.000   0.8067   0.19032   0.18743  -0.0453  0.0064  1.0000  -4.1471   0.0093   0.2883
  19.000   0.8087   0.21915   0.21616  -0.0557  0.0094  1.0000  -2.9487   0.0102   0.3008
  20.000   0.8230   0.24169   0.23867  -0.0637  0.0138  1.0000  -2.5142   0.0108   0.3084


