xflr5 v6.32

 Calculated polar for: MH 45  10% normal reflex

 1 1 Reynolds number fixed          Mach number fixed         

 xtrf =   1.000 (top)        1.000 (bottom)
 Mach =   0.000     Re =     0.200 e 6     Ncrit =   9.000

  alpha     CL        CD       CDp       Cm    Top Xtr Bot Xtr   Cpmin    Chinge    XCp    
 ------- -------- --------- --------- -------- ------- ------- -------- --------- ---------
  -2.000  -0.1874   0.01079   0.00523   0.0019  0.7677  0.6410  -1.1030  -0.0028   0.2562
  -1.000  -0.0775   0.01022   0.00523   0.0054  0.7343  0.8921  -0.5698  -0.0028   0.3143
   0.000   0.1021   0.01037   0.00492  -0.0061  0.6955  0.9837  -0.5332  -0.0018   0.3087
   1.000   0.2289   0.01011   0.00426  -0.0093  0.6511  1.0000  -0.6608  -0.0010   0.2884
   2.000   0.3274   0.01010   0.00396  -0.0066  0.6020  1.0000  -0.7955  -0.0007   0.2670
   3.000   0.4287   0.01030   0.00395  -0.0043  0.5464  1.0000  -0.9667  -0.0006   0.2561
   4.000   0.5313   0.01077   0.00421  -0.0023  0.4849  1.0000  -1.1873  -0.0004   0.2497
   5.000   0.6334   0.01169   0.00488  -0.0005  0.4171  1.0000  -1.4399  -0.0003   0.2453
   6.000   0.7361   0.01259   0.00587   0.0009  0.3540  1.0000  -2.0091  -0.0001   0.2423
   7.000   0.8351   0.01375   0.00667   0.0022  0.2644  1.0000  -3.0715   0.0000   0.2398
   8.000   0.9268   0.01600   0.00815   0.0034  0.1454  1.0000  -4.0976   0.0002   0.2376
   9.000   1.0159   0.01851   0.01058   0.0051  0.0916  1.0000  -5.2154   0.0003   0.2350
  10.000   1.0950   0.02167   0.01412   0.0076  0.0514  1.0000  -6.3546   0.0005   0.2317
  11.000   1.1402   0.02705   0.01949   0.0118  0.0110  1.0000  -7.2534   0.0007   0.2268
  12.000   1.1587   0.03398   0.02696   0.0153  0.0082  1.0000  -7.9042   0.0011   0.2223
  13.000   1.1524   0.04528   0.03896   0.0143  0.0075  1.0000  -8.2999   0.0015   0.2212
  14.000   1.1216   0.06178   0.05613   0.0084  0.0072  1.0000  -8.4320   0.0018   0.2242
  15.000   1.0816   0.08254   0.07750  -0.0013  0.0072  1.0000  -8.3832   0.0021   0.2311
  16.000   1.0385   0.10605   0.10156  -0.0131  0.0073  1.0000  -8.1813   0.0023   0.2410
  17.000   0.9936   0.13281   0.12885  -0.0275  0.0076  1.0000  -7.7562   0.0026   0.2548
  18.000   0.9323   0.16616   0.16269  -0.0460  0.0083  1.0000  -6.6361   0.0030   0.2762
  19.000   0.8551   0.21891   0.21536  -0.0672  0.0113  1.0000  -3.6450   0.0034   0.3076
  20.000   0.8638   0.24391   0.24031  -0.0763  0.0129  1.0000  -3.0795   0.0037   0.3165


