xflr5 v6.32

 Calculated polar for: MH 45  12% 3 reflex

 1 1 Reynolds number fixed          Mach number fixed         

 xtrf =   1.000 (top)        1.000 (bottom)
 Mach =   0.000     Re =     0.200 e 6     Ncrit =   9.000

  alpha     CL        CD       CDp       Cm    Top Xtr Bot Xtr   Cpmin    Chinge    XCp    
 ------- -------- --------- --------- -------- ------- ------- -------- --------- ---------
  -3.000  -0.3926   0.01344   0.00681   0.0163  0.7665  0.3599  -1.9984  -0.0025   0.2869
  -2.000  -0.2939   0.01210   0.00613   0.0194  0.7372  0.5469  -1.2232  -0.0025   0.3120
  -1.000  -0.1919   0.01110   0.00604   0.0241  0.7087  0.8214  -0.7302  -0.0025   0.3723
   0.000  -0.0403   0.01141   0.00604   0.0200  0.6737  0.9481  -0.4865  -0.0020   0.7450
   1.000   0.1567   0.01125   0.00541   0.0042  0.6315  0.9970  -0.6487  -0.0011   0.2196
   2.000   0.2646   0.01096   0.00485   0.0047  0.5873  1.0000  -0.7796  -0.0011   0.2286
   3.000   0.3662   0.01095   0.00462   0.0066  0.5386  1.0000  -0.9325  -0.0010   0.2276
   4.000   0.4683   0.01121   0.00470   0.0085  0.4862  1.0000  -1.1210  -0.0009   0.2270
   5.000   0.5696   0.01175   0.00509   0.0104  0.4312  1.0000  -1.3556  -0.0008   0.2263
   6.000   0.6694   0.01265   0.00589   0.0124  0.3736  1.0000  -1.6176  -0.0006   0.2255
   7.000   0.7675   0.01370   0.00690   0.0144  0.3169  1.0000  -2.1929  -0.0004   0.2244
   8.000   0.8620   0.01479   0.00769   0.0163  0.2414  1.0000  -3.1707  -0.0002   0.2232
   9.000   0.9484   0.01695   0.00926   0.0182  0.1443  1.0000  -4.1435  -0.0000   0.2218
  10.000   1.0285   0.01958   0.01197   0.0210  0.0973  1.0000  -5.1593   0.0002   0.2194
  11.000   1.0980   0.02274   0.01533   0.0242  0.0659  1.0000  -6.1850   0.0005   0.2165
  12.000   1.1276   0.02818   0.02081   0.0283  0.0308  1.0000  -6.9712   0.0012   0.2119
  13.000   1.1352   0.03653   0.02936   0.0299  0.0120  1.0000  -7.5632   0.0023   0.2089
  14.000   1.1340   0.04737   0.04069   0.0283  0.0093  1.0000  -8.0324   0.0033   0.2085
  15.000   1.1098   0.06285   0.05678   0.0227  0.0083  1.0000  -8.2450   0.0044   0.2110
  16.000   1.0666   0.08406   0.07861   0.0123  0.0081  1.0000  -8.1957   0.0055   0.2180
  17.000   1.0117   0.10940   0.10454  -0.0008  0.0082  1.0000  -7.9069   0.0064   0.2286
  18.000   0.9656   0.13539   0.13100  -0.0147  0.0084  1.0000  -7.5305   0.0074   0.2416
  19.000   0.9345   0.15911   0.15515  -0.0280  0.0085  1.0000  -7.1295   0.0082   0.2551
  20.000   0.8567   0.20210   0.19858  -0.0489  0.0101  1.0000  -5.0559   0.0097   0.2827


