xflr5 v6.32

 Calculated polar for: MH 45  12% 3 reflex

 1 1 Reynolds number fixed          Mach number fixed         

 xtrf =   1.000 (top)        1.000 (bottom)
 Mach =   0.000     Re =     0.300 e 6     Ncrit =   9.000

  alpha     CL        CD       CDp       Cm    Top Xtr Bot Xtr   Cpmin    Chinge    XCp    
 ------- -------- --------- --------- -------- ------- ------- -------- --------- ---------
  -3.000  -0.4058   0.01189   0.00493   0.0218  0.7339  0.2229  -2.0605  -0.0031   0.2992
  -2.000  -0.3051   0.01045   0.00429   0.0240  0.7073  0.4291  -1.2515  -0.0030   0.3249
  -1.000  -0.2070   0.00897   0.00366   0.0277  0.6789  0.6662  -0.7632  -0.0029   0.3808
   0.000  -0.0929   0.00858   0.00386   0.0300  0.6473  0.9094  -0.5241  -0.0027   0.5717
   1.000   0.0691   0.00900   0.00390   0.0219  0.6068  0.9651  -0.5979  -0.0021  -0.0733
   2.000   0.2483   0.00907   0.00362   0.0088  0.5566  0.9976  -0.7726  -0.0013   0.2103
   3.000   0.3603   0.00909   0.00342   0.0085  0.5050  1.0000  -0.9326  -0.0011   0.2219
   4.000   0.4652   0.00936   0.00353   0.0096  0.4521  1.0000  -1.1242  -0.0009   0.2244
   5.000   0.5691   0.00984   0.00389   0.0108  0.3985  1.0000  -1.3622  -0.0007   0.2255
   6.000   0.6711   0.01055   0.00455   0.0123  0.3454  1.0000  -1.6315  -0.0006   0.2255
   7.000   0.7694   0.01160   0.00517   0.0138  0.2587  1.0000  -2.2175  -0.0004   0.2250
   8.000   0.8587   0.01403   0.00658   0.0153  0.1218  1.0000  -3.0722  -0.0002   0.2243
   9.000   0.9459   0.01621   0.00847   0.0177  0.0689  1.0000  -3.9999  -0.0000   0.2223
  10.000   1.0268   0.01868   0.01112   0.0207  0.0369  1.0000  -5.0062   0.0002   0.2197
  11.000   1.0829   0.02293   0.01536   0.0247  0.0059  1.0000  -5.9244   0.0006   0.2157
  12.000   1.1216   0.02749   0.02036   0.0285  0.0053  1.0000  -6.7574   0.0013   0.2116
  13.000   1.1468   0.03436   0.02774   0.0300  0.0050  1.0000  -7.4792   0.0022   0.2091
  14.000   1.1481   0.04493   0.03887   0.0285  0.0049  1.0000  -7.9914   0.0033   0.2086
  15.000   1.1250   0.06014   0.05466   0.0232  0.0048  1.0000  -8.2494   0.0044   0.2108
  16.000   1.0870   0.08013   0.07521   0.0140  0.0049  1.0000  -8.2832   0.0054   0.2166
  17.000   1.0420   0.10268   0.09834   0.0029  0.0050  1.0000  -8.1462   0.0063   0.2249
  18.000   1.0029   0.12635   0.12248  -0.0094  0.0051  1.0000  -7.9278   0.0071   0.2353
  19.000   0.9649   0.15128   0.14785  -0.0232  0.0053  1.0000  -7.5311   0.0080   0.2487
  20.000   0.9173   0.18062   0.17752  -0.0402  0.0056  1.0000  -6.6410   0.0091   0.2677


