xflr5 v6.32

 Calculated polar for: MH 45  10% normal reflex

 1 1 Reynolds number fixed          Mach number fixed         

 xtrf =   1.000 (top)        1.000 (bottom)
 Mach =   0.000     Re =     0.300 e 6     Ncrit =   9.000

  alpha     CL        CD       CDp       Cm    Top Xtr Bot Xtr   Cpmin    Chinge    XCp    
 ------- -------- --------- --------- -------- ------- ------- -------- --------- ---------
  -2.000  -0.1946   0.00934   0.00362   0.0052  0.7326  0.5081  -1.1179  -0.0029   0.2727
  -1.000  -0.0963   0.00820   0.00338   0.0093  0.7015  0.7836  -0.6096  -0.0027   0.3431
   0.000   0.0378   0.00814   0.00329   0.0073  0.6637  0.9528  -0.4980  -0.0026   0.0570
   1.000   0.2176   0.00823   0.00298  -0.0060  0.6159  0.9994  -0.6571  -0.0010   0.2749
   2.000   0.3206   0.00825   0.00271  -0.0044  0.5653  1.0000  -0.7945  -0.0008   0.2605
   3.000   0.4241   0.00850   0.00278  -0.0029  0.5102  1.0000  -0.9673  -0.0006   0.2527
   4.000   0.5286   0.00898   0.00311  -0.0015  0.4496  1.0000  -1.1896  -0.0004   0.2481
   5.000   0.6329   0.00973   0.00370  -0.0003  0.3873  1.0000  -1.4489  -0.0002   0.2449
   6.000   0.7347   0.01085   0.00441   0.0008  0.2879  1.0000  -2.0059  -0.0001   0.2424
   7.000   0.8279   0.01338   0.00573   0.0017  0.1165  1.0000  -2.9003   0.0000   0.2403
   8.000   0.9233   0.01533   0.00745   0.0032  0.0663  1.0000  -3.9060   0.0002   0.2379
   9.000   1.0125   0.01783   0.00993   0.0050  0.0278  1.0000  -5.0127   0.0003   0.2351
  10.000   1.0884   0.02132   0.01378   0.0079  0.0054  1.0000  -6.1153   0.0004   0.2314
  11.000   1.1505   0.02509   0.01813   0.0116  0.0048  1.0000  -7.1411   0.0007   0.2271
  12.000   1.1697   0.03176   0.02540   0.0153  0.0046  1.0000  -7.8458   0.0011   0.2224
  13.000   1.1650   0.04276   0.03703   0.0145  0.0046  1.0000  -8.3074   0.0014   0.2211
  14.000   1.1393   0.05825   0.05313   0.0097  0.0047  1.0000  -8.5209   0.0017   0.2232
  15.000   1.1024   0.07809   0.07355   0.0009  0.0047  1.0000  -8.5314   0.0020   0.2290
  16.000   1.0577   0.10133   0.09735  -0.0105  0.0048  1.0000  -8.3409   0.0023   0.2381
  17.000   1.0084   0.12866   0.12520  -0.0252  0.0050  1.0000  -7.8954   0.0026   0.2518
  18.000   0.9459   0.16183   0.15883  -0.0440  0.0053  1.0000  -6.8751   0.0029   0.2729
  19.000   0.8684   0.20956   0.20670  -0.0658  0.0061  1.0000  -4.4036   0.0033   0.3038
  20.000   0.8796   0.23263   0.22976  -0.0746  0.0069  1.0000  -3.9791   0.0036   0.3120


