xflr5 v6.32

 Calculated polar for: MH 45  12% 3 reflex

 1 1 Reynolds number fixed          Mach number fixed         

 xtrf =   1.000 (top)        1.000 (bottom)
 Mach =   0.000     Re =     0.100 e 6     Ncrit =   9.000

  alpha     CL        CD       CDp       Cm    Top Xtr Bot Xtr   Cpmin    Chinge    XCp    
 ------- -------- --------- --------- -------- ------- ------- -------- --------- ---------
  -3.000  -0.3226   0.01676   0.00999  -0.0056  0.8644  0.5059  -1.5844  -0.0006   0.2277
  -2.000  -0.2291   0.01614   0.01016   0.0009  0.8229  0.7421  -1.0638  -0.0004   0.2492
  -1.000  -0.0681   0.01791   0.01168  -0.0020  0.7798  0.9289  -0.5741   0.0001   0.2140
   0.000   0.1360   0.01772   0.01084  -0.0189  0.7324  1.0000  -0.5755   0.0007   0.3877
   1.000   0.2191   0.01773   0.01049  -0.0149  0.6871  1.0000  -0.6719   0.0003   0.3157
   2.000   0.3056   0.01776   0.01027  -0.0100  0.6410  1.0000  -0.7901  -0.0001   0.2793
   3.000   0.3944   0.01776   0.01011  -0.0047  0.5937  1.0000  -0.9345  -0.0003   0.2580
   4.000   0.4859   0.01793   0.01019   0.0001  0.5446  1.0000  -1.1131  -0.0005   0.2452
   5.000   0.5791   0.01833   0.01055   0.0046  0.4919  1.0000  -1.3351  -0.0006   0.2369
   6.000   0.6729   0.01896   0.01119   0.0089  0.4348  1.0000  -1.5821  -0.0005   0.2310
   7.000   0.7658   0.02017   0.01219   0.0129  0.3735  1.0000  -1.9226  -0.0004   0.2265
   8.000   0.8560   0.02202   0.01413   0.0162  0.3099  1.0000  -2.8786  -0.0002   0.2235
   9.000   0.9422   0.02413   0.01628   0.0196  0.2516  1.0000  -3.9106  -0.0000   0.2204
  10.000   1.0210   0.02681   0.01877   0.0231  0.1971  1.0000  -4.9678   0.0002   0.2174
  11.000   1.0760   0.02868   0.02105   0.0263  0.1390  1.0000  -5.9830   0.0007   0.2142
  12.000   1.1063   0.03385   0.02653   0.0303  0.1093  1.0000  -6.7815   0.0013   0.2097
  13.000   1.1180   0.04160   0.03462   0.0322  0.0894  1.0000  -7.4189   0.0022   0.2066
  14.000   1.1061   0.05305   0.04645   0.0297  0.0710  1.0000  -7.8431   0.0034   0.2067
  15.000   1.0815   0.06850   0.06265   0.0241  0.0592  1.0000  -8.0344   0.0045   0.2094
  16.000   1.0313   0.09008   0.08456   0.0130  0.0483  1.0000  -7.8867   0.0056   0.2171
  17.000   0.9517   0.12144   0.11652  -0.0038  0.0450  1.0000  -7.1307   0.0067   0.2323
  18.000   0.8166   0.17540   0.17035  -0.0319  0.0446  1.0000  -4.7196   0.0086   0.2682
  19.000   0.8030   0.20457   0.19947  -0.0449  0.0418  1.0000  -3.8471   0.0095   0.2847
  20.000   0.8053   0.23048   0.22530  -0.0556  0.0371  1.0000  -3.0521   0.0104   0.2970


