xflr5 v6.32

 Calculated polar for: MH 45  10% 3 reflex

 1 1 Reynolds number fixed          Mach number fixed         

 xtrf =   1.000 (top)        1.000 (bottom)
 Mach =   0.000     Re =     0.200 e 6     Ncrit =   9.000

  alpha     CL        CD       CDp       Cm    Top Xtr Bot Xtr   Cpmin    Chinge    XCp    
 ------- -------- --------- --------- -------- ------- ------- -------- --------- ---------
  -3.000  -0.3776   0.01464   0.00664   0.0146  0.8088  0.0536  -3.2783  -0.0020   0.2849
  -2.000  -0.2914   0.01130   0.00562   0.0187  0.7770  0.5377  -2.1878  -0.0021   0.3111
  -1.000  -0.1527   0.01076   0.00597   0.0177  0.7460  0.9442  -0.9231  -0.0018   0.3633
   0.000   0.0372   0.01076   0.00527   0.0033  0.7100  1.0000  -0.4512  -0.0011   0.1613
   1.000   0.1347   0.01041   0.00451   0.0063  0.6697  1.0000  -0.5527  -0.0011   0.2007
   2.000   0.2356   0.01018   0.00404   0.0088  0.6251  1.0000  -0.6808  -0.0011   0.2099
   3.000   0.3367   0.01022   0.00383   0.0113  0.5704  1.0000  -0.8449  -0.0011   0.2133
   4.000   0.4396   0.01047   0.00398   0.0133  0.5096  1.0000  -1.0599  -0.0010   0.2162
   5.000   0.5425   0.01095   0.00441   0.0151  0.4415  1.0000  -1.3203  -0.0008   0.2180
   6.000   0.6443   0.01193   0.00521   0.0168  0.3655  1.0000  -2.0825  -0.0006   0.2190
   7.000   0.7448   0.01294   0.00603   0.0181  0.2682  1.0000  -3.2431  -0.0004   0.2200
   8.000   0.8381   0.01545   0.00763   0.0190  0.1242  1.0000  -4.3172  -0.0001   0.2208
   9.000   0.9285   0.01805   0.01028   0.0208  0.0672  1.0000  -5.5070   0.0001   0.2199
  10.000   1.0015   0.02257   0.01468   0.0234  0.0104  1.0000  -6.5715   0.0005   0.2178
  11.000   1.0561   0.02796   0.02104   0.0268  0.0077  1.0000  -7.4214   0.0010   0.2145
  12.000   1.0569   0.03693   0.03070   0.0291  0.0073  1.0000  -7.8587   0.0022   0.2108
  13.000   1.0433   0.04976   0.04418   0.0268  0.0071  1.0000  -8.1193   0.0035   0.2109
  14.000   1.0165   0.06651   0.06158   0.0203  0.0072  1.0000  -8.1883   0.0047   0.2150
  15.000   0.9755   0.08880   0.08450   0.0083  0.0073  1.0000  -7.9924   0.0058   0.2248
  16.000   0.9208   0.11775   0.11401  -0.0082  0.0077  1.0000  -7.4027   0.0068   0.2410
  17.000   0.8055   0.17052   0.16707  -0.0350  0.0099  1.0000  -4.6046   0.0085   0.2766
  18.000   0.7953   0.19850   0.19490  -0.0470  0.0117  1.0000  -3.4447   0.0095   0.2919
  19.000   0.8079   0.22018   0.21652  -0.0556  0.0134  1.0000  -2.9957   0.0102   0.3008
  20.000   0.8219   0.24771   0.24405  -0.0624  0.0282  1.0000  -2.3475   0.0107   0.3072


