xflr5 v6.32

 Calculated polar for: MH 45  10% 3 reflex

 1 1 Reynolds number fixed          Mach number fixed         

 xtrf =   1.000 (top)        1.000 (bottom)
 Mach =   0.000     Re =     0.100 e 6     Ncrit =   9.000

  alpha     CL        CD       CDp       Cm    Top Xtr Bot Xtr   Cpmin    Chinge    XCp    
 ------- -------- --------- --------- -------- ------- ------- -------- --------- ---------
  -1.000   0.0216   0.01476   0.00833  -0.0212  0.8384  1.0000  -0.4798   0.0011   1.2410
   0.000   0.1071   0.01543   0.00842  -0.0173  0.7862  1.0000  -0.4790   0.0009   0.4107
   1.000   0.1938   0.01603   0.00865  -0.0125  0.7339  1.0000  -0.5758   0.0005   0.3123
   2.000   0.2801   0.01629   0.00869  -0.0066  0.6822  1.0000  -0.6967   0.0000   0.2709
   3.000   0.3688   0.01633   0.00860  -0.0006  0.6300  1.0000  -0.8538  -0.0003   0.2487
   4.000   0.4599   0.01629   0.00846   0.0052  0.5740  1.0000  -1.0601  -0.0006   0.2352
   5.000   0.5553   0.01672   0.00890   0.0097  0.5086  1.0000  -1.3060  -0.0007   0.2286
   6.000   0.6520   0.01722   0.00942   0.0137  0.4317  1.0000  -1.9009  -0.0005   0.2243
   7.000   0.7474   0.01855   0.01081   0.0171  0.3426  1.0000  -3.1618  -0.0003   0.2216
   8.000   0.8397   0.02061   0.01278   0.0200  0.2560  1.0000  -4.4188  -0.0001   0.2198
   9.000   0.9222   0.02252   0.01424   0.0217  0.1565  1.0000  -5.6766   0.0003   0.2189
  10.000   0.9946   0.02654   0.01853   0.0240  0.0971  1.0000  -6.8323   0.0007   0.2171
  11.000   1.0381   0.03267   0.02537   0.0267  0.0453  1.0000  -7.6774   0.0013   0.2141
  12.000   1.0197   0.04420   0.03736   0.0287  0.0269  1.0000  -7.7193   0.0026   0.2102
  13.000   1.0011   0.05863   0.05252   0.0263  0.0221  1.0000  -7.6753   0.0038   0.2105
  14.000   0.9557   0.07969   0.07434   0.0163  0.0212  1.0000  -7.3672   0.0050   0.2181
  15.000   0.8650   0.11563   0.11093  -0.0053  0.0245  1.0000  -6.3081   0.0065   0.2404
  16.000   0.7929   0.15545   0.15063  -0.0253  0.0282  1.0000  -4.7445   0.0078   0.2662
  17.000   0.7827   0.18134   0.17611  -0.0368  0.0283  1.0000  -3.8233   0.0087   0.2809


