xflr5 v6.32

 Calculated polar for: MH-60 improved reflex

 1 1 Reynolds number fixed          Mach number fixed         

 xtrf =   1.000 (top)        1.000 (bottom)
 Mach =   0.000     Re =     0.100 e 6     Ncrit =   9.000

  alpha     CL        CD       CDp       Cm    Top Xtr Bot Xtr   Cpmin    Chinge    XCp    
 ------- -------- --------- --------- -------- ------- ------- -------- --------- ---------
  -3.000  -0.3274   0.01445   0.00824  -0.0052  0.9351  0.5067  -2.5099  -0.0007   0.2304
  -2.000  -0.1884   0.01448   0.00908  -0.0034  0.8950  0.9147  -1.4595  -0.0017   0.2280
  -1.000  -0.0078   0.01491   0.00844  -0.0158  0.8508  1.0000  -0.4641  -0.0015  -1.8230
   0.000   0.0751   0.01563   0.00853  -0.0108  0.8022  1.0000  -0.4630  -0.0020   0.3933
   1.000   0.1655   0.01621   0.00877  -0.0067  0.7526  1.0000  -0.5602  -0.0019   0.2881
   2.000   0.2533   0.01634   0.00866  -0.0009  0.7034  1.0000  -0.6822  -0.0018   0.2505
   3.000   0.3437   0.01616   0.00830   0.0048  0.6504  1.0000  -0.8328  -0.0016   0.2323
   4.000   0.4393   0.01607   0.00820   0.0092  0.5881  1.0000  -1.0304  -0.0014   0.2247
   5.000   0.5346   0.01604   0.00794   0.0141  0.5196  1.0000  -1.2594  -0.0013   0.2185
   6.000   0.6332   0.01684   0.00869   0.0172  0.4390  1.0000  -1.5663  -0.0011   0.2168
   7.000   0.7314   0.01846   0.01029   0.0193  0.3499  1.0000  -1.9872  -0.0008   0.2166
   8.000   0.8254   0.02097   0.01273   0.0215  0.2637  1.0000  -2.8751  -0.0006   0.2159
   9.000   0.9136   0.02450   0.01651   0.0234  0.1877  1.0000  -4.0052  -0.0004   0.2151
  10.000   0.9926   0.02936   0.02159   0.0258  0.1283  1.0000  -5.1249  -0.0002   0.2134
  11.000   1.0508   0.03579   0.02811   0.0284  0.0765  1.0000  -6.0510   0.0000   0.2110
  12.000   1.0449   0.04405   0.03686   0.0299  0.0399  1.0000  -6.3189   0.0006   0.2077
  13.000   1.0244   0.05775   0.05124   0.0275  0.0287  1.0000  -6.3235   0.0010   0.2077
  14.000   0.9811   0.07768   0.07197   0.0186  0.0264  1.0000  -6.0980   0.0013   0.2140
  15.000   0.8824   0.11426   0.10932  -0.0039  0.0308  1.0000  -5.1841   0.0016   0.2367
  16.000   0.7434   0.18537   0.18017  -0.0380  0.0970  1.0000  -2.2621   0.0019   0.2867
  17.000   0.7602   0.20269   0.19745  -0.0449  0.0822  1.0000  -2.0518   0.0022   0.2936
  18.000   0.7922   0.21876   0.21354  -0.0486  0.0650  1.0000  -2.0432   0.0024   0.2945
  19.000   0.8068   0.23472   0.22940  -0.0596  0.0607  1.0000  -1.7904   0.0027   0.3061
  20.000   0.8379   0.25072   0.24545  -0.0652  0.0533  1.0000  -1.8257   0.0030   0.3085


