xflr5 v6.32

 Calculated polar for: MH-60 improved reflex

 1 1 Reynolds number fixed          Mach number fixed         

 xtrf =   1.000 (top)        1.000 (bottom)
 Mach =   0.000     Re =     0.300 e 6     Ncrit =   9.000

  alpha     CL        CD       CDp       Cm    Top Xtr Bot Xtr   Cpmin    Chinge    XCp    
 ------- -------- --------- --------- -------- ------- ------- -------- --------- ---------
  -3.000  -0.4256   0.01459   0.00692   0.0264  0.7741  0.0177  -2.5593  -0.0046   0.3089
  -2.000  -0.3288   0.01076   0.00430   0.0295  0.7505  0.3314  -2.1239  -0.0045   0.3369
  -1.000  -0.2373   0.00824   0.00389   0.0353  0.7244  0.8756  -1.2769  -0.0046   0.3965
   0.000  -0.0717   0.00867   0.00393   0.0267  0.6942  0.9783  -0.4137  -0.0041   0.6220
   1.000   0.0829   0.00846   0.00329   0.0182  0.6571  1.0000  -0.5272  -0.0028   0.0267
   2.000   0.1900   0.00830   0.00290   0.0191  0.6124  1.0000  -0.6566  -0.0025   0.1456
   3.000   0.2984   0.00833   0.00270   0.0197  0.5565  1.0000  -0.8137  -0.0021   0.1797
   4.000   0.4070   0.00865   0.00278   0.0201  0.4864  1.0000  -1.0245  -0.0018   0.1958
   5.000   0.5154   0.00930   0.00318   0.0202  0.4094  1.0000  -1.2674  -0.0015   0.2054
   6.000   0.6222   0.01024   0.00400   0.0202  0.3339  1.0000  -1.5895  -0.0012   0.2112
   7.000   0.7268   0.01144   0.00515   0.0204  0.2591  1.0000  -2.0382  -0.0009   0.2147
   8.000   0.8278   0.01315   0.00672   0.0207  0.1808  1.0000  -3.1307  -0.0007   0.2167
   9.000   0.9237   0.01531   0.00884   0.0214  0.1169  1.0000  -4.4331  -0.0005   0.2174
  10.000   1.0133   0.01787   0.01126   0.0222  0.0609  1.0000  -5.8202  -0.0003   0.2172
  11.000   1.0740   0.02402   0.01735   0.0241  0.0087  1.0000  -6.5309   0.0001   0.2153
  12.000   1.0835   0.03332   0.02725   0.0251  0.0069  1.0000  -6.9442   0.0007   0.2129
  13.000   1.0655   0.04672   0.04123   0.0234  0.0066  1.0000  -7.0973   0.0011   0.2123
  14.000   1.0429   0.06265   0.05778   0.0187  0.0066  1.0000  -7.1853   0.0013   0.2146
  15.000   1.0108   0.08285   0.07858   0.0087  0.0067  1.0000  -7.1482   0.0016   0.2222
  16.000   0.9714   0.10752   0.10378  -0.0050  0.0068  1.0000  -6.9316   0.0019   0.2345
  17.000   0.9226   0.13758   0.13432  -0.0215  0.0071  1.0000  -6.3690   0.0021   0.2519
  18.000   0.8016   0.20068   0.19764  -0.0481  0.0108  1.0000  -2.9549   0.0024   0.2915
  19.000   0.8096   0.22866   0.22555  -0.0591  0.0213  1.0000  -1.9012   0.0027   0.3046
  20.000   0.8362   0.24402   0.24092  -0.0669  0.0186  1.0000  -1.9120   0.0030   0.3103


