xflr5 v6.32

 Calculated polar for: MH-60

 1 1 Reynolds number fixed          Mach number fixed         

 xtrf =   1.000 (top)        1.000 (bottom)
 Mach =   0.000     Re =     0.200 e 6     Ncrit =   9.000

  alpha     CL        CD       CDp       Cm    Top Xtr Bot Xtr   Cpmin    Chinge    XCp    
 ------- -------- --------- --------- -------- ------- ------- -------- --------- ---------
  -3.000  -0.2440   0.01141   0.00531  -0.0087  0.8419  0.4205  -2.1823  -0.0022   0.2099
  -2.000  -0.1539   0.01007   0.00489  -0.0028  0.8075  0.7168  -1.3483  -0.0024   0.2276
  -1.000  -0.0131   0.00969   0.00466  -0.0053  0.7734  0.9598  -0.4573  -0.0023  -0.1741
   0.000   0.1296   0.00959   0.00402  -0.0115  0.7345  1.0000  -0.5137  -0.0016   0.3382
   1.000   0.2319   0.00962   0.00371  -0.0094  0.6908  1.0000  -0.6270  -0.0013   0.2885
   2.000   0.3358   0.00970   0.00352  -0.0073  0.6402  1.0000  -0.7727  -0.0010   0.2689
   3.000   0.4410   0.00990   0.00352  -0.0055  0.5776  1.0000  -0.9583  -0.0008   0.2588
   4.000   0.5469   0.01043   0.00379  -0.0041  0.5001  1.0000  -1.1852  -0.0006   0.2531
   5.000   0.6522   0.01141   0.00457  -0.0031  0.4150  1.0000  -1.4617  -0.0004   0.2495
   6.000   0.7558   0.01279   0.00576  -0.0022  0.3316  1.0000  -1.8462  -0.0003   0.2468
   7.000   0.8568   0.01452   0.00747  -0.0015  0.2456  1.0000  -2.6409  -0.0001   0.2445
   8.000   0.9521   0.01697   0.00984  -0.0004  0.1679  1.0000  -3.8463   0.0001   0.2421
   9.000   1.0399   0.02009   0.01303   0.0011  0.1099  1.0000  -5.1384   0.0002   0.2393
  10.000   1.1206   0.02322   0.01611   0.0022  0.0511  1.0000  -6.4814   0.0004   0.2370
  11.000   1.1389   0.03201   0.02512   0.0068  0.0127  1.0000  -6.7220   0.0007   0.2315
  12.000   1.1225   0.04447   0.03811   0.0079  0.0108  1.0000  -6.8707   0.0011   0.2287
  13.000   1.1116   0.05845   0.05278   0.0060  0.0103  1.0000  -7.0450   0.0013   0.2287
  14.000   1.0760   0.07802   0.07310  -0.0016  0.0102  1.0000  -6.9544   0.0015   0.2339
  15.000   1.0188   0.10532   0.10110  -0.0167  0.0105  1.0000  -6.5421   0.0018   0.2473
  16.000   0.9457   0.14125   0.13756  -0.0373  0.0109  1.0000  -5.6625   0.0021   0.2697
  17.000   0.8506   0.19960   0.19600  -0.0633  0.0157  1.0000  -2.9378   0.0024   0.3068


