xflr5 v6.32

 Calculated polar for: MH-60

 1 1 Reynolds number fixed          Mach number fixed         

 xtrf =   1.000 (top)        1.000 (bottom)
 Mach =   0.000     Re =     0.100 e 6     Ncrit =   9.000

  alpha     CL        CD       CDp       Cm    Top Xtr Bot Xtr   Cpmin    Chinge    XCp    
 ------- -------- --------- --------- -------- ------- ------- -------- --------- ---------
  -3.000  -0.2156   0.01406   0.00811  -0.0227  0.9512  0.6345  -2.0080   0.0010   0.1400
  -2.000  -0.0534   0.01401   0.00821  -0.0269  0.9135  0.9209  -0.9317   0.0009  -0.2646
  -1.000   0.1201   0.01408   0.00745  -0.0387  0.8672  1.0000  -0.4565   0.0004   0.5736
   0.000   0.1971   0.01469   0.00761  -0.0326  0.8112  1.0000  -0.5407  -0.0003   0.4146
   1.000   0.2800   0.01522   0.00782  -0.0259  0.7592  1.0000  -0.6470  -0.0007   0.3406
   2.000   0.3674   0.01544   0.00774  -0.0191  0.7049  1.0000  -0.7817  -0.0008   0.2994
   3.000   0.4624   0.01562   0.00785  -0.0142  0.6427  1.0000  -0.9600  -0.0006   0.2774
   4.000   0.5601   0.01564   0.00764  -0.0094  0.5734  1.0000  -1.1784  -0.0005   0.2627
   5.000   0.6606   0.01623   0.00814  -0.0060  0.4915  1.0000  -1.4489  -0.0004   0.2541
   6.000   0.7606   0.01763   0.00945  -0.0036  0.3987  1.0000  -1.8189  -0.0002   0.2488
   7.000   0.8571   0.01991   0.01162  -0.0014  0.3060  1.0000  -2.5421  -0.0000   0.2446
   8.000   0.9482   0.02304   0.01472   0.0008  0.2196  1.0000  -3.6091   0.0001   0.2410
   9.000   1.0319   0.02757   0.01952   0.0033  0.1520  1.0000  -4.7640   0.0002   0.2374
  10.000   1.1002   0.03328   0.02556   0.0064  0.0966  1.0000  -5.8027   0.0004   0.2333
  11.000   1.1187   0.04051   0.03309   0.0109  0.0484  1.0000  -6.3075   0.0007   0.2279
  12.000   1.1015   0.05165   0.04465   0.0119  0.0301  1.0000  -6.4605   0.0010   0.2252
  13.000   1.0768   0.06770   0.06148   0.0085  0.0253  1.0000  -6.4146   0.0013   0.2265
  14.000   1.0146   0.09250   0.08716  -0.0044  0.0253  1.0000  -6.0143   0.0016   0.2372
  15.000   0.8955   0.13953   0.13479  -0.0329  0.0325  1.0000  -4.6493   0.0019   0.2695
  16.000   0.8332   0.18970   0.18470  -0.0529  0.0513  1.0000  -2.7773   0.0022   0.2977
  17.000   0.8296   0.21633   0.21121  -0.0678  0.0685  1.0000  -2.0459   0.0025   0.3157
  18.000   0.8669   0.23704   0.23196  -0.0702  0.0632  1.0000  -2.0618   0.0026   0.3137
  19.000   0.8774   0.24954   0.24437  -0.0839  0.0560  1.0000  -1.7948   0.0030   0.3270
  20.000   0.9135   0.27162   0.26655  -0.0863  0.0516  1.0000  -1.9193   0.0031   0.3244


