xflr5 v6.32

 Calculated polar for: MH-60 improved reflex

 1 1 Reynolds number fixed          Mach number fixed         

 xtrf =   1.000 (top)        1.000 (bottom)
 Mach =   0.000     Re =     0.200 e 6     Ncrit =   9.000

  alpha     CL        CD       CDp       Cm    Top Xtr Bot Xtr   Cpmin    Chinge    XCp    
 ------- -------- --------- --------- -------- ------- ------- -------- --------- ---------
  -3.000  -0.3998   0.01597   0.00783   0.0189  0.8149  0.0269  -2.4805  -0.0042   0.2940
  -2.000  -0.3176   0.01153   0.00582   0.0243  0.7857  0.5518  -2.0553  -0.0044   0.3238
  -1.000  -0.1800   0.01094   0.00609   0.0238  0.7573  0.9507  -1.0362  -0.0045   0.3796
   0.000  -0.0016   0.01087   0.00535   0.0112  0.7247  1.0000  -0.4309  -0.0030   7.4500
   1.000   0.1011   0.01052   0.00466   0.0130  0.6873  1.0000  -0.5343  -0.0026   0.1180
   2.000   0.2037   0.01025   0.00412   0.0152  0.6445  1.0000  -0.6625  -0.0023   0.1716
   3.000   0.3078   0.01016   0.00379   0.0171  0.5924  1.0000  -0.8177  -0.0020   0.1904
   4.000   0.4132   0.01031   0.00377   0.0185  0.5248  1.0000  -1.0256  -0.0017   0.2006
   5.000   0.5192   0.01089   0.00414   0.0193  0.4492  1.0000  -1.2652  -0.0014   0.2074
   6.000   0.6244   0.01187   0.00503   0.0199  0.3687  1.0000  -1.5835  -0.0011   0.2119
   7.000   0.7272   0.01328   0.00636   0.0204  0.2892  1.0000  -2.0292  -0.0009   0.2148
   8.000   0.8263   0.01519   0.00822   0.0210  0.2075  1.0000  -3.0546  -0.0006   0.2164
   9.000   0.9180   0.01792   0.01093   0.0220  0.1420  1.0000  -4.2899  -0.0004   0.2166
  10.000   1.0029   0.02093   0.01405   0.0231  0.0862  1.0000  -5.5948  -0.0002   0.2162
  11.000   1.0659   0.02619   0.01919   0.0242  0.0210  1.0000  -6.5436   0.0001   0.2150
  12.000   1.0653   0.03649   0.02996   0.0252  0.0120  1.0000  -6.7325   0.0008   0.2124
  13.000   1.0497   0.04983   0.04383   0.0238  0.0108  1.0000  -6.8455   0.0011   0.2116
  14.000   1.0309   0.06558   0.06028   0.0192  0.0105  1.0000  -6.9109   0.0013   0.2140
  15.000   0.9874   0.08798   0.08338   0.0080  0.0106  1.0000  -6.6775   0.0016   0.2229
  16.000   0.9247   0.11860   0.11460  -0.0096  0.0109  1.0000  -6.0704   0.0019   0.2402
  17.000   0.7933   0.18090   0.17724  -0.0387  0.0149  1.0000  -3.2231   0.0021   0.2812


