xflr5 v6.32

 Calculated polar for: MH-60

 1 1 Reynolds number fixed          Mach number fixed         

 xtrf =   1.000 (top)        1.000 (bottom)
 Mach =   0.000     Re =     0.300 e 6     Ncrit =   9.000

  alpha     CL        CD       CDp       Cm    Top Xtr Bot Xtr   Cpmin    Chinge    XCp    
 ------- -------- --------- --------- -------- ------- ------- -------- --------- ---------
  -3.000  -0.2635   0.01066   0.00394  -0.0013  0.7991  0.2175  -2.2747  -0.0028   0.2410
  -2.000  -0.1655   0.00873   0.00342   0.0014  0.7678  0.5983  -1.4123  -0.0027   0.2542
  -1.000  -0.0632   0.00767   0.00312   0.0054  0.7355  0.8808  -0.6033  -0.0024   0.3307
   0.000   0.1140   0.00773   0.00281  -0.0070  0.7003  1.0000  -0.5079  -0.0017   0.3107
   1.000   0.2202   0.00770   0.00247  -0.0059  0.6562  1.0000  -0.6223  -0.0013   0.2745
   2.000   0.3278   0.00784   0.00236  -0.0049  0.6050  1.0000  -0.7703  -0.0011   0.2618
   3.000   0.4357   0.00819   0.00247  -0.0039  0.5376  1.0000  -0.9578  -0.0008   0.2553
   4.000   0.5434   0.00884   0.00283  -0.0032  0.4588  1.0000  -1.1871  -0.0006   0.2516
   5.000   0.6503   0.00979   0.00360  -0.0027  0.3750  1.0000  -1.4656  -0.0005   0.2490
   6.000   0.7557   0.01100   0.00465  -0.0023  0.2970  1.0000  -1.8569  -0.0003   0.2469
   7.000   0.8581   0.01262   0.00611  -0.0018  0.2150  1.0000  -2.7055  -0.0001   0.2449
   8.000   0.9565   0.01471   0.00806  -0.0011  0.1429  1.0000  -3.9608   0.0000   0.2428
   9.000   1.0498   0.01716   0.01037  -0.0003  0.0790  1.0000  -5.3515   0.0002   0.2406
  10.000   1.1239   0.02179   0.01467   0.0018  0.0124  1.0000  -6.4148   0.0003   0.2374
  11.000   1.1570   0.02909   0.02262   0.0061  0.0070  1.0000  -6.9189   0.0007   0.2322
  12.000   1.1414   0.04111   0.03526   0.0075  0.0065  1.0000  -7.1264   0.0010   0.2292
  13.000   1.1224   0.05584   0.05061   0.0054  0.0064  1.0000  -7.2759   0.0013   0.2292
  14.000   1.0912   0.07443   0.06988  -0.0019  0.0065  1.0000  -7.2997   0.0015   0.2340
  15.000   1.0526   0.09759   0.09363  -0.0143  0.0066  1.0000  -7.1836   0.0017   0.2442
  16.000   1.0087   0.12529   0.12185  -0.0299  0.0068  1.0000  -6.8439   0.0020   0.2590
  17.000   0.8622   0.19357   0.19066  -0.0624  0.0095  1.0000  -3.4303   0.0023   0.3043
  19.000   0.8813   0.24374   0.24071  -0.0838  0.0196  1.0000  -1.9263   0.0029   0.3261
  20.000   0.9099   0.25828   0.25530  -0.0902  0.0175  1.0000  -2.0922   0.0031   0.3283


